@<TRIPOS>MOLECULE
vac.crds
63 65 3 0 0
SMALL
NO_CHARGES


@<TRIPOS>ATOM
      1 C1         -2.9760   -4.3700    1.2980 C.3       1 MGO    0.3046
      2 H1         -2.9250   -5.4670    1.4430 H         1 MGO    0.0908
      3 O1         -1.6690   -3.8170    0.9240 O.3       1 MGO   -0.4531
      4 C2         -3.9580   -4.0750    0.1680 C.3       1 MGO    0.0922
      5 H2         -4.9370   -4.5010    0.4040 H         1 MGO    0.1029
      6 O2         -3.4570   -4.6460   -1.0520 O.3       1 MGO   -0.5867
      7 HO2        -2.5040   -4.8050   -0.9680 H         1 MGO    0.4251
      8 C3         -4.0720   -2.5820   -0.0560 C.3       1 MGO    0.0932
      9 H3         -3.1130   -2.1960   -0.4110 H         1 MGO    0.0645
     10 O3         -5.0900   -2.3860   -1.0500 O.3       1 MGO   -0.5926
     11 HO3        -4.9950   -3.1070   -1.6880 H         1 MGO    0.4211
     12 C4         -4.4720   -1.8630    1.2250 C.3       1 MGO    0.1276
     13 H4         -5.5080   -2.1110    1.4680 H         1 MGO    0.0807
     14 C5         -3.5480   -2.2340    2.3990 C.3       1 MGO    0.1044
     15 H5         -2.5480   -1.8670    2.1570 H         1 MGO    0.0685
     16 O5         -3.4710   -3.7150    2.5220 O.3       1 MGO   -0.4274
     17 C6         -3.8910   -1.6450    3.7750 C.3       1 MGO    0.1411
     18 H61        -3.3570   -0.7030    3.9160 H         1 MGO    0.0574
     19 H62        -3.5800   -2.3310    4.5670 H         1 MGO    0.0574
     20 O6         -5.2980   -1.3930    3.8860 O.3       1 MGO   -0.5936
     21 HO6        -5.4660   -0.4950    3.5740 H         1 MGO    0.4221
     22 C1          2.3920   -4.6450    1.2980 C.3       2 MGO    0.3046
     23 H1          3.3670   -5.1490    1.4430 H         2 MGO    0.0908
     24 O1          2.5670   -3.2360    0.9240 O.3       2 MGO   -0.4531
     25 C2          1.6470   -5.3480    0.1690 C.3       2 MGO    0.0922
     26 H2          1.5260   -6.4090    0.4040 H         2 MGO    0.1029
     27 O2          2.3920   -5.1990   -1.0510 O.3       2 MGO   -0.5867
     28 HO2         3.0060   -4.4540   -0.9680 H         2 MGO    0.4251
     29 C3          0.2960   -4.6990   -0.0550 C.3       2 MGO    0.0932
     30 H3          0.4420   -3.6760   -0.4110 H         2 MGO    0.0645
     31 O3         -0.3840   -5.4840   -1.0500 O.3       2 MGO   -0.5926
     32 HO3         0.2900   -5.7610   -1.6880 H         2 MGO    0.4211
     33 C4         -0.5280   -4.6860    1.2250 C.3       2 MGO    0.1276
     34 H4         -0.8300   -5.7080    1.4670 H         2 MGO    0.0807
     35 C5          0.2560   -4.0720    2.4000 C.3       2 MGO    0.1044
     36 H5          0.4380   -3.0230    2.1580 H         2 MGO    0.0685
     37 O5          1.5770   -4.7460    2.5220 O.3       2 MGO   -0.4274
     38 C6         -0.4260   -4.0750    3.7750 C.3       2 MGO    0.1411
     39 H61        -0.9750   -3.1420    3.9170 H         2 MGO    0.0574
     40 H62         0.3240   -4.1490    4.5670 H         2 MGO    0.0574
     41 O6         -1.3470   -5.1680    3.8860 O.3       2 MGO   -0.5936
     42 HO6        -2.2100   -4.8640    3.5730 H         2 MGO    0.4221
     43 C1          5.3140   -0.1330    1.2990 C.3       3 MGO    0.3046
     44 H1          6.2380    0.4590    1.4450 H         3 MGO    0.0908
     45 O1          4.1820    0.7230    0.9250 O.3       3 MGO   -0.4531
     46 C2          5.5500   -1.1300    0.1700 C.3       3 MGO    0.0922
     47 H2          6.4080   -1.7660    0.4050 H         3 MGO    0.1029
     48 O2          5.7950   -0.4120   -1.0500 O.3       3 MGO   -0.5867
     49 HO2         5.4570    0.4930   -0.9670 H         3 MGO    0.4251
     50 C3          4.3140   -1.9770   -0.0550 C.3       3 MGO    0.0932
     51 H3          3.5000   -1.3390   -0.4110 H         3 MGO    0.0645
     52 O3          4.6540   -2.9570   -1.0490 O.3       3 MGO   -0.5926
     53 HO3         5.2300   -2.5130   -1.6860 H         3 MGO    0.4211
     54 C4          3.8900   -2.6820    1.2260 C.3       3 MGO    0.1276
     55 H4          4.6240   -3.4550    1.4690 H         3 MGO    0.0807
     56 C5          3.7500   -1.6960    2.4000 C.3       3 MGO    0.1044
     57 H5          2.9320   -1.0140    2.1580 H         3 MGO    0.0685
     58 O5          4.9930   -0.8900    2.5230 O.3       3 MGO   -0.4274
     59 C6          3.4110   -2.2880    3.7760 C.3       3 MGO    0.1411
     60 H61         2.3280   -2.2960    3.9170 H         3 MGO    0.0574
     61 H62         3.8490   -1.6750    4.5670 H         3 MGO    0.0574
     62 O6          3.8970   -3.6320    3.8870 O.3       3 MGO   -0.5936
     63 HO6         3.2020   -4.2270    3.5740 H         3 MGO    0.4221
@<TRIPOS>BOND
     1   17   20 1
     2   14   16 1
     3   14   17 1
     4   12   14 1
     5    8   10 1
     6    8   12 1
     7    4    6 1
     8    4    8 1
     9    3   33 1
    10    1    3 1
    11    1    4 1
    12    1   16 1
    13   38   41 1
    14   35   37 1
    15   35   38 1
    16   33   35 1
    17   29   31 1
    18   29   33 1
    19   25   27 1
    20   25   29 1
    21   24   54 1
    22   22   24 1
    23   22   25 1
    24   22   37 1
    25   59   62 1
    26   56   58 1
    27   56   59 1
    28   54   56 1
    29   50   52 1
    30   50   54 1
    31   46   48 1
    32   46   50 1
    33   43   45 1
    34   43   46 1
    35   43   58 1
    36   20   21 1
    37   17   18 1
    38   17   19 1
    39   14   15 1
    40   12   13 1
    41   10   11 1
    42    8    9 1
    43    6    7 1
    44    4    5 1
    45    1    2 1
    46   41   42 1
    47   38   39 1
    48   38   40 1
    49   35   36 1
    50   33   34 1
    51   31   32 1
    52   29   30 1
    53   27   28 1
    54   25   26 1
    55   22   23 1
    56   62   63 1
    57   59   60 1
    58   59   61 1
    59   56   57 1
    60   54   55 1
    61   52   53 1
    62   50   51 1
    63   48   49 1
    64   46   47 1
    65   43   44 1
@<TRIPOS>SUBSTRUCTURE
     1 MGO     1 RESIDUE           4 A     MGO     1 ROOT
     2 MGO    22 RESIDUE           4 A     MGO     2
     3 MGO    43 RESIDUE           4 A     MGO     1
